# generated using pymatgen
data_CoPdO2
_symmetry_space_group_name_H-M   'P 1'
_cell_length_a   2.86337981
_cell_length_b   2.86337981
_cell_length_c   17.87331473
_cell_angle_alpha   90.00000000
_cell_angle_beta   90.00000000
_cell_angle_gamma   120.00000000
_symmetry_Int_Tables_number   1
_chemical_formula_structural   CoPdO2
_chemical_formula_sum   'Co3 Pd3 O6'
_cell_volume   126.90935964
_cell_formula_units_Z   3
loop_
 _symmetry_equiv_pos_site_id
 _symmetry_equiv_pos_as_xyz
  1  'x, y, z'
loop_
 _atom_type_symbol
 _atom_type_oxidation_number
  Co2+  2.0
  Pd2+  2.0
  O2-  -2.0
loop_
 _atom_site_type_symbol
 _atom_site_label
 _atom_site_symmetry_multiplicity
 _atom_site_fract_x
 _atom_site_fract_y
 _atom_site_fract_z
 _atom_site_occupancy
  Co2+  Co0  1  0.33333333  0.66666667  0.16666667  1
  Co2+  Co1  1  1.00000000  1.00000000  0.50000000  1
  Co2+  Co2  1  0.66666667  0.33333333  0.83333333  1
  Pd2+  Pd3  1  0.00000000  0.00000000  0.00000000  1
  Pd2+  Pd4  1  0.66666667  0.33333333  0.33333333  1
  Pd2+  Pd5  1  0.33333333  0.66666667  0.66666667  1
  O2-  O6  1  0.66666667  0.33333333  0.22085733  1
  O2-  O7  1  0.00000000  0.00000000  0.11247600  1
  O2-  O8  1  0.33333333  0.66666667  0.55419067  1
  O2-  O9  1  0.66666667  0.33333333  0.44580933  1
  O2-  O10  1  0.00000000  0.00000000  0.88752400  1
  O2-  O11  1  0.33333333  0.66666667  0.77914267  1
